ptp1b_protein_0
     RDKit          3D

 25 26  0  0  0  0  0  0  0  0999 V2000
   43.3947   13.8786   16.5695 S   0  0  0  0  0  0  0  0  0  0  0  0
   43.9785   16.5494   15.8943 C   0  0  0  0  0  0  0  0  0  0  0  0
   44.4829   16.6700   17.0064 O   0  0  0  0  0  0  0  0  0  0  0  0
   44.0608   17.4314   14.9905 O   0  0  0  0  0  0  0  0  0  0  0  0
   40.6152   13.0299   13.2652 Br  0  0  0  0  0  0  0  0  0  0  0  0
   42.0701   15.9102   13.5401 O   0  0  0  0  0  0  0  0  0  0  0  0
   40.5616   17.5015   12.5878 C   0  0  0  0  0  0  0  0  0  0  0  0
   39.4110   18.0063   12.5139 O   0  0  0  0  0  0  0  0  0  0  0  0
   41.4414   17.5932   11.6944 O   0  0  0  0  0  0  0  0  0  0  0  0
   39.1813    9.2865   16.1822 N   0  0  0  0  0  0  0  0  0  0  0  0
   37.7884    6.0406   13.5895 O   0  0  0  0  0  0  0  0  0  0  0  0
   42.8409    9.4064   16.8655 C   0  0  0  0  0  0  0  0  0  0  0  0
   40.9203   16.7161   13.8529 C   0  0  0  0  0  0  0  0  0  0  0  0
   39.3894    7.7035   14.3080 C   0  0  0  0  0  0  0  0  0  0  0  0
   40.4986    9.7152   16.2994 C   0  0  0  0  0  0  0  0  0  0  0  0
   38.8764    7.9394   15.7209 C   0  0  0  0  0  0  0  0  0  0  0  0
   41.5490    8.9000   16.7780 C   0  0  0  0  0  0  0  0  0  0  0  0
   43.2462   15.2916   15.5767 C   0  0  0  0  0  0  0  0  0  0  0  0
   42.3321   12.9437   15.6208 C   0  0  0  0  0  0  0  0  0  0  0  0
   41.8469   13.6929   14.5570 C   0  0  0  0  0  0  0  0  0  0  0  0
   39.1743    6.2824   13.7937 C   0  0  0  0  0  0  0  0  0  0  0  0
   42.3784   15.0046   14.5231 C   0  0  0  0  0  0  0  0  0  0  0  0
   43.1140   10.7219   16.4877 C   0  0  0  0  0  0  0  0  0  0  0  0
   40.7634   11.0440   15.9575 C   0  0  0  0  0  0  0  0  0  0  0  0
   42.0640   11.5520   16.0221 C   0  0  0  0  0  0  0  0  0  0  0  0
  3  2  2  0
  4  2  1  0
  8  7  1  0
  9  7  2  0
 13  6  1  0
 13  7  1  0
 15 10  1  0
 16 10  1  0
 16 14  1  0
 17 12  2  0
 17 15  1  0
 18  1  1  0
 18  2  1  0
 19  1  1  0
 20  5  1  0
 20 19  2  0
 21 11  1  0
 21 14  1  0
 22  6  1  0
 22 18  2  0
 22 20  1  0
 23 12  1  0
 24 15  2  0
 25 19  1  0
 25 23  2  0
 25 24  1  0
M  CHG  2   4  -1   8  -1
M  END
>  <pic50>  (1) 
7.006542682647705

>  <pki>  (1) 
6.622839450836182

>  <pkd>  (1) 
6.2732319831848145

>  <pec50>  (1) 
6.4829325675964355

$$$$
ptp1b_protein_1
     RDKit          3D

 27 29  0  0  0  0  0  0  0  0999 V2000
   43.3595   13.8722   16.5132 S   0  0  0  0  0  0  0  0  0  0  0  0
   43.9302   16.5613   15.8069 C   0  0  0  0  0  0  0  0  0  0  0  0
   44.4246   16.7054   16.9283 O   0  0  0  0  0  0  0  0  0  0  0  0
   44.0040   17.4211   14.8758 O   0  0  0  0  0  0  0  0  0  0  0  0
   40.6717   12.9444   13.1270 Br  0  0  0  0  0  0  0  0  0  0  0  0
   42.0135   15.8602   13.4800 O   0  0  0  0  0  0  0  0  0  0  0  0
   40.5468   17.4955   12.5535 C   0  0  0  0  0  0  0  0  0  0  0  0
   39.3963   17.9597   12.4633 O   0  0  0  0  0  0  0  0  0  0  0  0
   41.4340   17.5731   11.6637 O   0  0  0  0  0  0  0  0  0  0  0  0
   39.1432    9.2328   16.0973 N   0  0  0  0  0  0  0  0  0  0  0  0
   37.8715    6.1989   13.4925 O   0  0  0  0  0  0  0  0  0  0  0  0
   41.4847    8.9022   16.8436 C   0  0  0  0  0  0  0  0  0  0  0  0
   40.7245   11.0087   15.8971 C   0  0  0  0  0  0  0  0  0  0  0  0
   39.6944    7.5261   14.3782 C   0  0  0  0  0  0  0  0  0  0  0  0
   42.7699    9.4147   16.9571 C   0  0  0  0  0  0  0  0  0  0  0  0
   41.8371   13.6528   14.4910 C   0  0  0  0  0  0  0  0  0  0  0  0
   42.0178   11.5279   15.9986 C   0  0  0  0  0  0  0  0  0  0  0  0
   42.3441   14.9774   14.4689 C   0  0  0  0  0  0  0  0  0  0  0  0
   38.8791    7.8649   15.6491 C   0  0  0  0  0  0  0  0  0  0  0  0
   39.2696    6.1589   13.8213 C   0  0  0  0  0  0  0  0  0  0  0  0
   40.4498    9.6931   16.2837 C   0  0  0  0  0  0  0  0  0  0  0  0
   37.0660    6.3782   14.6739 C   0  0  0  0  0  0  0  0  0  0  0  0
   42.3011   12.9124   15.5750 C   0  0  0  0  0  0  0  0  0  0  0  0
   43.2082   15.2826   15.5171 C   0  0  0  0  0  0  0  0  0  0  0  0
   40.9155   16.7195   13.8328 C   0  0  0  0  0  0  0  0  0  0  0  0
   37.3881    7.7343   15.3393 C   0  0  0  0  0  0  0  0  0  0  0  0
   43.0442   10.7110   16.5407 C   0  0  0  0  0  0  0  0  0  0  0  0
  3  2  2  0
  4  2  1  0
  8  7  1  0
  9  7  2  0
 15 12  2  0
 16  5  1  0
 17 13  1  0
 18  6  1  0
 18 16  1  0
 19 10  1  0
 19 14  1  0
 20 11  1  0
 20 14  1  0
 21 10  1  0
 21 12  1  0
 21 13  2  0
 22 11  1  0
 23  1  1  0
 23 16  2  0
 23 17  1  0
 24  1  1  0
 24  2  1  0
 24 18  2  0
 25  6  1  0
 25  7  1  0
 26 19  1  0
 26 22  1  0
 27 15  1  0
 27 17  2  0
M  CHG  2   4  -1   8  -1
M  END
>  <pic50>  (2) 
7.130730152130127

>  <pki>  (2) 
6.906982898712158

>  <pkd>  (2) 
6.457555770874023

>  <pec50>  (2) 
6.573713302612305

$$$$
ptp1b_protein_2
     RDKit          3D

 26 28  0  0  0  0  0  0  0  0999 V2000
   43.4372   13.9012   16.5634 S   0  0  0  0  0  0  0  0  0  0  0  0
   43.9974   16.5752   15.8832 C   0  0  0  0  0  0  0  0  0  0  0  0
   44.5058   16.6885   16.9874 O   0  0  0  0  0  0  0  0  0  0  0  0
   44.0540   17.4780   14.9935 O   0  0  0  0  0  0  0  0  0  0  0  0
   40.6313   13.0426   13.2108 Br  0  0  0  0  0  0  0  0  0  0  0  0
   42.0897   15.9285   13.5473 O   0  0  0  0  0  0  0  0  0  0  0  0
   40.6144   17.5401   12.6247 C   0  0  0  0  0  0  0  0  0  0  0  0
   39.4671   18.0251   12.5209 O   0  0  0  0  0  0  0  0  0  0  0  0
   41.5060   17.6286   11.7421 O   0  0  0  0  0  0  0  0  0  0  0  0
   39.2224    9.2923   16.1387 N   0  0  0  0  0  0  0  0  0  0  0  0
   37.8512    5.8256   13.6639 O   0  0  0  0  0  0  0  0  0  0  0  0
   42.1014   11.5650   16.0157 C   0  0  0  0  0  0  0  0  0  0  0  0
   41.5674    8.9557   16.9037 C   0  0  0  0  0  0  0  0  0  0  0  0
   38.9532    7.8636   15.9919 C   0  0  0  0  0  0  0  0  0  0  0  0
   42.3655   12.9523   15.6062 C   0  0  0  0  0  0  0  0  0  0  0  0
   38.1692    7.0770   14.1209 C   0  0  0  0  0  0  0  0  0  0  0  0
   43.2720   15.3108   15.5646 C   0  0  0  0  0  0  0  0  0  0  0  0
   42.3998   15.0217   14.5189 C   0  0  0  0  0  0  0  0  0  0  0  0
   40.9669   16.7658   13.8952 C   0  0  0  0  0  0  0  0  0  0  0  0
   43.1429   10.7396   16.5107 C   0  0  0  0  0  0  0  0  0  0  0  0
   40.5268    9.7410   16.3294 C   0  0  0  0  0  0  0  0  0  0  0  0
   41.8718   13.7050   14.5388 C   0  0  0  0  0  0  0  0  0  0  0  0
   39.5549    7.2467   14.7111 C   0  0  0  0  0  0  0  0  0  0  0  0
   37.5554    7.5203   15.4516 C   0  0  0  0  0  0  0  0  0  0  0  0
   42.8605    9.4506   16.9554 C   0  0  0  0  0  0  0  0  0  0  0  0
   40.7976   11.0551   15.9433 C   0  0  0  0  0  0  0  0  0  0  0  0
  3  2  2  0
  4  2  1  0
  8  7  1  0
  9  7  2  0
 14 10  1  0
 15  1  1  0
 15 12  1  0
 16 11  1  0
 17  1  1  0
 17  2  1  0
 18  6  1  0
 18 17  2  0
 19  6  1  0
 19  7  1  0
 20 12  1  0
 21 10  1  0
 21 13  2  0
 22  5  1  0
 22 15  2  0
 22 18  1  0
 23 14  1  0
 23 16  1  0
 24 14  1  0
 24 16  1  0
 25 13  1  0
 25 20  2  0
 26 12  2  0
 26 21  1  0
M  CHG  2   4  -1   8  -1
M  END
>  <pic50>  (3) 
7.456675052642822

>  <pki>  (3) 
7.108645915985107

>  <pkd>  (3) 
6.557627201080322

>  <pec50>  (3) 
6.619542598724365

$$$$
ptp1b_protein_3
     RDKit          3D

 27 29  0  0  0  0  0  0  0  0999 V2000
   43.3944   13.9162   16.5774 S   0  0  0  0  0  0  0  0  0  0  0  0
   43.9767   16.5924   15.8831 C   0  0  0  0  0  0  0  0  0  0  0  0
   44.4787   16.7063   17.0159 O   0  0  0  0  0  0  0  0  0  0  0  0
   44.0604   17.4719   14.9711 O   0  0  0  0  0  0  0  0  0  0  0  0
   40.6593   13.0571   13.1714 Br  0  0  0  0  0  0  0  0  0  0  0  0
   42.0528   15.9283   13.5464 O   0  0  0  0  0  0  0  0  0  0  0  0
   40.5718   17.5407   12.6077 C   0  0  0  0  0  0  0  0  0  0  0  0
   39.4137   18.0029   12.5234 O   0  0  0  0  0  0  0  0  0  0  0  0
   41.4616   17.6093   11.7119 O   0  0  0  0  0  0  0  0  0  0  0  0
   39.2284    9.3158   15.9994 N   0  0  0  0  0  0  0  0  0  0  0  0
   37.7120    6.0122   13.4402 O   0  0  0  0  0  0  0  0  0  0  0  0
   42.8694    9.4156   16.8307 C   0  0  0  0  0  0  0  0  0  0  0  0
   40.8062   11.0484   15.8578 C   0  0  0  0  0  0  0  0  0  0  0  0
   39.6571    6.7129   14.2815 C   0  0  0  0  0  0  0  0  0  0  0  0
   39.0658    6.0184   13.2368 C   0  0  0  0  0  0  0  0  0  0  0  0
   43.1355   10.7460   16.4824 C   0  0  0  0  0  0  0  0  0  0  0  0
   38.6322    7.1396   15.1315 C   0  0  0  0  0  0  0  0  0  0  0  0
   41.8666   13.7169   14.5319 C   0  0  0  0  0  0  0  0  0  0  0  0
   42.0944   11.5687   15.9852 C   0  0  0  0  0  0  0  0  0  0  0  0
   37.4500    6.6697   14.6189 C   0  0  0  0  0  0  0  0  0  0  0  0
   41.5841    8.8975   16.6889 C   0  0  0  0  0  0  0  0  0  0  0  0
   40.5304    9.7173   16.1888 C   0  0  0  0  0  0  0  0  0  0  0  0
   42.3782   15.0394   14.5244 C   0  0  0  0  0  0  0  0  0  0  0  0
   42.3498   12.9592   15.6029 C   0  0  0  0  0  0  0  0  0  0  0  0
   40.9470   16.7810   13.8962 C   0  0  0  0  0  0  0  0  0  0  0  0
   38.7529    7.9755   16.3604 C   0  0  0  0  0  0  0  0  0  0  0  0
   43.2457   15.3315   15.5773 C   0  0  0  0  0  0  0  0  0  0  0  0
  3  2  2  0
  4  2  1  0
  8  7  1  0
  9  7  2  0
 15 11  1  0
 15 14  2  0
 16 12  2  0
 17 14  1  0
 18  5  1  0
 19 13  2  0
 19 16  1  0
 20 11  1  0
 20 17  2  0
 21 12  1  0
 22 10  1  0
 22 13  1  0
 22 21  2  0
 23  6  1  0
 23 18  1  0
 24  1  1  0
 24 18  2  0
 24 19  1  0
 25  6  1  0
 25  7  1  0
 26 10  1  0
 26 17  1  0
 27  1  1  0
 27  2  1  0
 27 23  2  0
M  CHG  2   4  -1   8  -1
M  END
>  <pic50>  (4) 
6.9470343589782715

>  <pki>  (4) 
6.660224437713623

>  <pkd>  (4) 
6.307197093963623

>  <pec50>  (4) 
6.479979038238525

$$$$
ptp1b_protein_4
     RDKit          3D

 26 27  0  0  0  0  0  0  0  0999 V2000
   43.4406   13.8184   16.5978 S   0  0  0  0  0  0  0  0  0  0  0  0
   43.9630   16.5106   15.8575 C   0  0  0  0  0  0  0  0  0  0  0  0
   44.5116   16.6408   16.9424 O   0  0  0  0  0  0  0  0  0  0  0  0
   43.9769   17.4146   14.9663 O   0  0  0  0  0  0  0  0  0  0  0  0
   40.5769   12.9438   13.2755 Br  0  0  0  0  0  0  0  0  0  0  0  0
   42.0338   15.8374   13.5971 O   0  0  0  0  0  0  0  0  0  0  0  0
   40.6072   17.4838   12.6920 C   0  0  0  0  0  0  0  0  0  0  0  0
   39.4776   18.0072   12.5810 O   0  0  0  0  0  0  0  0  0  0  0  0
   41.5300   17.6136   11.8504 O   0  0  0  0  0  0  0  0  0  0  0  0
   39.3158    9.1626   16.4154 N   0  0  0  0  0  0  0  0  0  0  0  0
   37.9274    6.2249   13.3836 O   0  0  0  0  0  0  0  0  0  0  0  0
   40.6253    9.6193   16.5072 C   0  0  0  0  0  0  0  0  0  0  0  0
   42.3733   12.8605   15.6581 C   0  0  0  0  0  0  0  0  0  0  0  0
   37.3758    6.3856   14.6865 C   0  0  0  0  0  0  0  0  0  0  0  0
   40.9003   16.6481   13.9376 C   0  0  0  0  0  0  0  0  0  0  0  0
   43.2292   10.6556   16.5156 C   0  0  0  0  0  0  0  0  0  0  0  0
   41.7082    8.8379   16.9629 C   0  0  0  0  0  0  0  0  0  0  0  0
   39.2664    5.7674   13.3608 C   0  0  0  0  0  0  0  0  0  0  0  0
   40.8466   10.9456   16.1115 C   0  0  0  0  0  0  0  0  0  0  0  0
   41.8500   13.6032   14.5971 C   0  0  0  0  0  0  0  0  0  0  0  0
   42.9950    9.3517   16.9474 C   0  0  0  0  0  0  0  0  0  0  0  0
   42.3595   14.9242   14.5612 C   0  0  0  0  0  0  0  0  0  0  0  0
   39.0651    7.8532   15.8711 C   0  0  0  0  0  0  0  0  0  0  0  0
   42.1443   11.4664   16.0890 C   0  0  0  0  0  0  0  0  0  0  0  0
   37.6787    7.7707   15.2545 C   0  0  0  0  0  0  0  0  0  0  0  0
   43.2499   15.2268   15.5832 C   0  0  0  0  0  0  0  0  0  0  0  0
  3  2  2  0
  4  2  1  0
  8  7  1  0
  9  7  2  0
 12 10  1  0
 13  1  1  0
 14 11  1  0
 15  6  1  0
 15  7  1  0
 17 12  2  0
 18 11  1  0
 19 12  1  0
 20  5  1  0
 20 13  2  0
 21 16  2  0
 21 17  1  0
 22  6  1  0
 22 20  1  0
 23 10  1  0
 24 13  1  0
 24 16  1  0
 24 19  2  0
 25 14  1  0
 25 23  1  0
 26  1  1  0
 26  2  1  0
 26 22  2  0
M  CHG  2   4  -1   8  -1
M  END
>  <pic50>  (5) 
7.052485942840576

>  <pki>  (5) 
6.761295318603516

>  <pkd>  (5) 
6.323941707611084

>  <pec50>  (5) 
6.467319965362549

$$$$
