ptp1b_protein_0
     RDKit          3D

 28 30  0  0  0  0  0  0  0  0999 V2000
   43.4596   13.9139   16.5859 S   0  0  0  0  0  0  0  0  0  0  0  0
   43.3403   15.3518   15.6467 C   0  0  0  0  0  0  0  0  0  0  0  0
   42.4459   15.2048   14.6029 C   0  0  0  0  0  0  0  0  0  0  0  0
   41.8543   13.9081   14.6168 C   0  0  0  0  0  0  0  0  0  0  0  0
   42.3498   13.0865   15.6602 C   0  0  0  0  0  0  0  0  0  0  0  0
   42.0874   11.6552   16.0006 C   0  0  0  0  0  0  0  0  0  0  0  0
   40.8204   11.0766   15.8135 C   0  0  0  0  0  0  0  0  0  0  0  0
   40.6042    9.7287   16.1266 C   0  0  0  0  0  0  0  0  0  0  0  0
   41.6287    8.9674   16.7187 C   0  0  0  0  0  0  0  0  0  0  0  0
   42.8668    9.5454   16.9669 C   0  0  0  0  0  0  0  0  0  0  0  0
   43.1123   10.8813   16.6000 C   0  0  0  0  0  0  0  0  0  0  0  0
   39.3235    9.1944   15.9450 N   0  0  0  0  0  0  0  0  0  0  0  0
   39.0824    7.8632   15.4489 C   0  0  0  0  0  0  0  0  0  0  0  0
   37.6070    7.4717   15.5745 C   0  0  0  0  0  0  0  0  0  0  0  0
   37.2564    6.1766   14.8742 C   0  0  0  0  0  0  0  0  0  0  0  0
   37.7664    6.1099   13.5315 O   0  0  0  0  0  0  0  0  0  0  0  0
   39.1829    6.3268   13.4523 C   0  0  0  0  0  0  0  0  0  0  0  0
   39.6127    7.6280   14.0469 C   0  0  0  0  0  0  0  0  0  0  0  0
   43.8829    8.7803   17.5196 O   0  0  0  0  0  0  0  0  0  0  0  0
   40.5989   17.4789   12.5059 C   0  0  0  0  0  0  0  0  0  0  0  0
   40.6413   13.3669   13.3112 Br  0  0  0  0  0  0  0  0  0  0  0  0
   43.3811    8.2719   19.8646 C   0  0  0  0  0  0  0  0  0  0  0  0
   40.9600   16.8454   13.8206 C   0  0  0  0  0  0  0  0  0  0  0  0
   44.1574   16.5594   15.9687 C   0  0  0  0  0  0  0  0  0  0  0  0
   44.2455    9.0762   18.8643 C   0  0  0  0  0  0  0  0  0  0  0  0
   42.2100   16.1918   13.6776 O   0  0  0  0  0  0  0  0  0  0  0  0
   39.3633   18.0467   12.5281 O   0  0  0  0  0  0  0  0  0  0  0  0
   44.1135    7.1594   20.3879 O   0  0  0  0  0  0  0  0  0  0  0  0
  2  1  1  0
  3  2  2  0
  4  3  1  0
  5  1  1  0
  5  4  2  0
  6  5  1  0
  7  6  2  0
  8  7  1  0
  9  8  2  0
 10  9  1  0
 11  6  1  0
 11 10  2  0
 12  8  1  0
 13 12  1  0
 14 13  1  0
 15 14  1  0
 16 15  1  0
 17 16  1  0
 18 13  1  0
 18 17  1  0
 19 10  1  0
 21  4  1  0
 23 20  1  0
 24  2  1  0
 25 19  1  0
 25 22  1  0
 26  3  1  0
 26 23  1  0
 27 20  1  0
 28 22  1  0
M  END
>  <pic50>  (1) 
6.7810516357421875

>  <pki>  (1) 
6.03129243850708

>  <pkd>  (1) 
5.806373596191406

>  <pec50>  (1) 
6.1797990798950195

$$$$
ptp1b_protein_1
     RDKit          3D

 26 28  0  0  0  0  0  0  0  0999 V2000
   43.4461   14.0463   16.5621 S   0  0  0  0  0  0  0  0  0  0  0  0
   43.2659   15.4741   15.6030 C   0  0  0  0  0  0  0  0  0  0  0  0
   42.3710   15.2626   14.5687 C   0  0  0  0  0  0  0  0  0  0  0  0
   41.8402   13.9211   14.5818 C   0  0  0  0  0  0  0  0  0  0  0  0
   42.3393   13.1099   15.6448 C   0  0  0  0  0  0  0  0  0  0  0  0
   42.0819   11.6813   16.0496 C   0  0  0  0  0  0  0  0  0  0  0  0
   40.8123   11.1080   15.8437 C   0  0  0  0  0  0  0  0  0  0  0  0
   40.5658    9.7892   16.1740 C   0  0  0  0  0  0  0  0  0  0  0  0
   41.5926    9.0154   16.7785 C   0  0  0  0  0  0  0  0  0  0  0  0
   42.8464    9.5828   17.0153 C   0  0  0  0  0  0  0  0  0  0  0  0
   43.0907   10.9167   16.6600 C   0  0  0  0  0  0  0  0  0  0  0  0
   39.2492    9.2961   15.9569 N   0  0  0  0  0  0  0  0  0  0  0  0
   38.9185    7.9140   15.5431 C   0  0  0  0  0  0  0  0  0  0  0  0
   37.3818    7.6119   15.4387 C   0  0  0  0  0  0  0  0  0  0  0  0
   37.0787    6.2009   14.8532 C   0  0  0  0  0  0  0  0  0  0  0  0
   37.6843    6.1085   13.5350 O   0  0  0  0  0  0  0  0  0  0  0  0
   39.1242    6.2643   13.5698 C   0  0  0  0  0  0  0  0  0  0  0  0
   39.5456    7.6235   14.1646 C   0  0  0  0  0  0  0  0  0  0  0  0
   40.7045   18.0705   12.8482 O   0  0  0  0  0  0  0  0  0  0  0  0
   39.3587    6.9216   16.7396 C   0  0  0  0  0  0  0  0  0  0  0  0
   38.9188    7.1854   17.8877 O   0  0  0  0  0  0  0  0  0  0  0  0
   40.0150    5.9146   16.4756 O   0  0  0  0  0  0  0  0  0  0  0  0
   40.8088   17.0422   13.5421 C   0  0  0  0  0  0  0  0  0  0  0  0
   40.6212   13.2788   13.2178 Br  0  0  0  0  0  0  0  0  0  0  0  0
   39.8677   16.5969   14.1810 O   0  0  0  0  0  0  0  0  0  0  0  0
   42.1447   16.3332   13.5200 C   0  0  0  0  0  0  0  0  0  0  0  0
  2  1  1  0
  3  2  2  0
  4  3  1  0
  5  1  1  0
  5  4  2  0
  6  5  1  0
  7  6  2  0
  8  7  1  0
  9  8  2  0
 10  9  1  0
 11  6  1  0
 11 10  2  0
 12  8  1  0
 13 12  1  0
 14 13  1  0
 15 14  1  0
 16 15  1  0
 17 16  1  0
 18 13  1  0
 18 17  1  0
 20 13  1  0
 21 20  1  0
 22 20  2  0
 23 19  1  0
 24  4  1  0
 25 23  2  0
 26  3  1  0
 26 23  1  0
M  CHG  2  19  -1  21  -1
M  END
>  <pic50>  (2) 
5.91820764541626

>  <pki>  (2) 
5.544070720672607

>  <pkd>  (2) 
5.471317291259766

>  <pec50>  (2) 
5.963620662689209

$$$$
ptp1b_protein_2
     RDKit          3D

 26 28  0  0  0  0  0  0  0  0999 V2000
   43.4512   14.0334   16.6478 S   0  0  0  0  0  0  0  0  0  0  0  0
   43.3512   15.4841   15.6867 C   0  0  0  0  0  0  0  0  0  0  0  0
   42.5051   15.2830   14.5985 C   0  0  0  0  0  0  0  0  0  0  0  0
   41.8905   13.9860   14.6127 C   0  0  0  0  0  0  0  0  0  0  0  0
   42.3210   13.1584   15.6816 C   0  0  0  0  0  0  0  0  0  0  0  0
   42.0217   11.7369   16.0362 C   0  0  0  0  0  0  0  0  0  0  0  0
   40.7624   11.1565   15.8035 C   0  0  0  0  0  0  0  0  0  0  0  0
   40.5232    9.8135   16.1446 C   0  0  0  0  0  0  0  0  0  0  0  0
   41.5234    9.0618   16.7659 C   0  0  0  0  0  0  0  0  0  0  0  0
   42.7657    9.6419   17.0341 C   0  0  0  0  0  0  0  0  0  0  0  0
   43.0182   10.9449   16.6430 C   0  0  0  0  0  0  0  0  0  0  0  0
   39.2421    9.2771   15.9172 N   0  0  0  0  0  0  0  0  0  0  0  0
   39.0056    7.9295   15.4616 C   0  0  0  0  0  0  0  0  0  0  0  0
   37.5267    7.5679   15.5539 C   0  0  0  0  0  0  0  0  0  0  0  0
   37.1751    6.2241   14.9251 C   0  0  0  0  0  0  0  0  0  0  0  0
   37.6879    6.0713   13.5974 O   0  0  0  0  0  0  0  0  0  0  0  0
   39.1043    6.2483   13.5025 C   0  0  0  0  0  0  0  0  0  0  0  0
   39.5397    7.6099   14.0835 C   0  0  0  0  0  0  0  0  0  0  0  0
   39.3738    6.1529   12.2018 F   0  0  0  0  0  0  0  0  0  0  0  0
   40.2432   16.9511   14.3758 O   0  0  0  0  0  0  0  0  0  0  0  0
   42.3803   16.3512   13.5314 C   0  0  0  0  0  0  0  0  0  0  0  0
   39.7076    5.2575   14.1220 F   0  0  0  0  0  0  0  0  0  0  0  0
   40.8415   17.7819   12.4491 O   0  0  0  0  0  0  0  0  0  0  0  0
   43.9909    8.6965   17.8517 Cl  0  0  0  0  0  0  0  0  0  0  0  0
   41.0520   17.0617   13.4523 C   0  0  0  0  0  0  0  0  0  0  0  0
   40.6723   13.4068   13.2337 Br  0  0  0  0  0  0  0  0  0  0  0  0
  2  1  1  0
  3  2  2  0
  4  3  1  0
  5  1  1  0
  5  4  2  0
  6  5  1  0
  7  6  2  0
  8  7  1  0
  9  8  2  0
 10  9  1  0
 11  6  1  0
 11 10  2  0
 12  8  1  0
 13 12  1  0
 14 13  1  0
 15 14  1  0
 16 15  1  0
 17 16  1  0
 18 13  1  0
 18 17  1  0
 19 17  1  0
 21  3  1  0
 22 17  1  0
 24 10  1  0
 25 20  1  0
 25 21  1  0
 25 23  2  0
 26  4  1  0
M  CHG  1  20  -1
M  END
>  <pic50>  (3) 
6.594067096710205

>  <pki>  (3) 
6.195972919464111

>  <pkd>  (3) 
5.891042232513428

>  <pec50>  (3) 
6.359230041503906

$$$$
ptp1b_protein_3
     RDKit          3D

 28 30  0  0  0  0  0  0  0  0999 V2000
   43.4920   13.9890   16.7092 S   0  0  0  0  0  0  0  0  0  0  0  0
   43.3813   15.3692   15.6709 C   0  0  0  0  0  0  0  0  0  0  0  0
   42.5060   15.0913   14.6101 C   0  0  0  0  0  0  0  0  0  0  0  0
   41.8802   13.8122   14.6894 C   0  0  0  0  0  0  0  0  0  0  0  0
   42.3491   13.0670   15.7467 C   0  0  0  0  0  0  0  0  0  0  0  0
   42.0573   11.6572   16.0910 C   0  0  0  0  0  0  0  0  0  0  0  0
   40.7804   11.0934   15.8842 C   0  0  0  0  0  0  0  0  0  0  0  0
   40.5487    9.7503   16.2168 C   0  0  0  0  0  0  0  0  0  0  0  0
   41.5735    8.9963   16.8124 C   0  0  0  0  0  0  0  0  0  0  0  0
   42.8443    9.5492   17.0420 C   0  0  0  0  0  0  0  0  0  0  0  0
   43.0866   10.8676   16.6767 C   0  0  0  0  0  0  0  0  0  0  0  0
   39.2567    9.2067   16.0246 N   0  0  0  0  0  0  0  0  0  0  0  0
   39.0283    7.8790   15.5361 C   0  0  0  0  0  0  0  0  0  0  0  0
   37.5439    7.4711   15.6602 C   0  0  0  0  0  0  0  0  0  0  0  0
   37.2271    6.1087   15.0164 C   0  0  0  0  0  0  0  0  0  0  0  0
   37.7272    5.9805   13.6714 O   0  0  0  0  0  0  0  0  0  0  0  0
   39.1528    6.2467   13.5468 C   0  0  0  0  0  0  0  0  0  0  0  0
   39.5628    7.6117   14.1657 C   0  0  0  0  0  0  0  0  0  0  0  0
   43.7360    8.4794   18.9368 C   0  0  0  0  0  0  0  0  0  0  0  0
   40.5702   17.3366   12.5161 C   0  0  0  0  0  0  0  0  0  0  0  0
   39.4188    6.2105   12.2410 F   0  0  0  0  0  0  0  0  0  0  0  0
   39.4512   17.9364   12.5087 O   0  0  0  0  0  0  0  0  0  0  0  0
   43.8714    8.7995   17.6023 O   0  0  0  0  0  0  0  0  0  0  0  0
   40.9861   16.6726   13.8089 C   0  0  0  0  0  0  0  0  0  0  0  0
   39.8035    5.2654   14.1566 F   0  0  0  0  0  0  0  0  0  0  0  0
   42.2599   16.0026   13.6371 O   0  0  0  0  0  0  0  0  0  0  0  0
   41.3415   17.3216   11.5194 O   0  0  0  0  0  0  0  0  0  0  0  0
   37.1214    7.3877   17.0233 O   0  0  0  0  0  0  0  0  0  0  0  0
  2  1  1  0
  3  2  2  0
  4  3  1  0
  5  1  1  0
  5  4  2  0
  6  5  1  0
  7  6  2  0
  8  7  1  0
  9  8  2  0
 10  9  1  0
 11  6  1  0
 11 10  2  0
 12  8  1  0
 13 12  1  0
 14 13  1  0
 15 14  1  0
 16 15  1  0
 17 16  1  0
 18 13  1  0
 18 17  1  0
 21 17  1  0
 22 20  2  0
 23 10  1  0
 23 19  1  0
 24 20  1  0
 25 17  1  0
 26  3  1  0
 26 24  1  0
 27 20  1  0
 28 14  1  0
M  CHG  1  27  -1
M  END
>  <pic50>  (4) 
6.342044353485107

>  <pki>  (4) 
5.484039306640625

>  <pkd>  (4) 
5.408417224884033

>  <pec50>  (4) 
5.994352340698242

$$$$
ptp1b_protein_4
     RDKit          3D

 27 29  0  0  0  0  0  0  0  0999 V2000
   43.4949   14.0604   16.6303 S   0  0  0  0  0  0  0  0  0  0  0  0
   43.3991   15.4732   15.6970 C   0  0  0  0  0  0  0  0  0  0  0  0
   42.5139   15.2779   14.6397 C   0  0  0  0  0  0  0  0  0  0  0  0
   41.9349   13.9617   14.6245 C   0  0  0  0  0  0  0  0  0  0  0  0
   42.3993   13.1406   15.6863 C   0  0  0  0  0  0  0  0  0  0  0  0
   42.1041   11.7109   16.0217 C   0  0  0  0  0  0  0  0  0  0  0  0
   40.8493   11.1334   15.7804 C   0  0  0  0  0  0  0  0  0  0  0  0
   40.5994    9.7779   16.1440 C   0  0  0  0  0  0  0  0  0  0  0  0
   41.6344    9.0196   16.7275 C   0  0  0  0  0  0  0  0  0  0  0  0
   42.8666    9.6105   17.0031 C   0  0  0  0  0  0  0  0  0  0  0  0
   43.1026   10.9296   16.6629 C   0  0  0  0  0  0  0  0  0  0  0  0
   39.2612    9.2377   16.0531 N   0  0  0  0  0  0  0  0  0  0  0  0
   38.9917    7.8810   15.4955 C   0  0  0  0  0  0  0  0  0  0  0  0
   37.5030    7.4753   15.5306 C   0  0  0  0  0  0  0  0  0  0  0  0
   37.2141    6.1185   14.8938 C   0  0  0  0  0  0  0  0  0  0  0  0
   37.7728    6.0705   13.5608 O   0  0  0  0  0  0  0  0  0  0  0  0
   39.1767    6.3369   13.5113 C   0  0  0  0  0  0  0  0  0  0  0  0
   39.5627    7.6834   14.0941 C   0  0  0  0  0  0  0  0  0  0  0  0
   39.3824   17.9463   12.5173 O   0  0  0  0  0  0  0  0  0  0  0  0
   40.5158   17.4228   12.5755 C   0  0  0  0  0  0  0  0  0  0  0  0
   40.7255   13.4218   13.2530 Br  0  0  0  0  0  0  0  0  0  0  0  0
   41.0133   16.9378   13.9369 C   0  0  0  0  0  0  0  0  0  0  0  0
   41.2907   17.3560   11.5740 O   0  0  0  0  0  0  0  0  0  0  0  0
   42.2730   16.2756   13.7608 O   0  0  0  0  0  0  0  0  0  0  0  0
   38.4410    9.6015   17.2471 C   0  0  0  0  0  0  0  0  0  0  0  0
   38.6977    8.7490   18.5080 C   0  0  0  0  0  0  0  0  0  0  0  0
   43.9161    8.8025   17.6957 Br  0  0  0  0  0  0  0  0  0  0  0  0
  2  1  1  0
  3  2  2  0
  4  3  1  0
  5  1  1  0
  5  4  2  0
  6  5  1  0
  7  6  2  0
  8  7  1  0
  9  8  2  0
 10  9  1  0
 11  6  1  0
 11 10  2  0
 12  8  1  0
 13 12  1  0
 14 13  1  0
 15 14  1  0
 16 15  1  0
 17 16  1  0
 18 13  1  0
 18 17  1  0
 20 19  1  0
 21  4  1  0
 22 20  1  0
 23 20  2  0
 24  3  1  0
 24 22  1  0
 25 12  1  0
 26 25  1  0
 27 10  1  0
M  CHG  1  19  -1
M  END
>  <pic50>  (5) 
6.559488296508789

>  <pki>  (5) 
6.161683559417725

>  <pkd>  (5) 
5.70725154876709

>  <pec50>  (5) 
6.1155924797058105

$$$$
