ptp1b_protein_0
     RDKit          3D

 28 31  0  0  0  0  0  0  0  0999 V2000
   43.4165   13.8614   16.3514 S   0  0  0  0  0  0  0  0  0  0  0  0
   43.3072   15.3525   15.3701 C   0  0  0  0  0  0  0  0  0  0  0  0
   42.3637   15.1037   14.3647 C   0  0  0  0  0  0  0  0  0  0  0  0
   41.8160   13.7668   14.4390 C   0  0  0  0  0  0  0  0  0  0  0  0
   42.3396   12.9628   15.4595 C   0  0  0  0  0  0  0  0  0  0  0  0
   44.0310   16.6082   15.6961 C   0  0  0  0  0  0  0  0  0  0  0  0
   44.4946   16.7543   16.8277 O   0  0  0  0  0  0  0  0  0  0  0  0
   44.1102   17.4829   14.7955 O   0  0  0  0  0  0  0  0  0  0  0  0
   42.0963   11.5504   15.8596 C   0  0  0  0  0  0  0  0  0  0  0  0
   40.8169   10.9692   15.7281 C   0  0  0  0  0  0  0  0  0  0  0  0
   40.5812    9.6539   16.1202 C   0  0  0  0  0  0  0  0  0  0  0  0
   41.6275    8.8880   16.6897 C   0  0  0  0  0  0  0  0  0  0  0  0
   42.8951    9.4499   16.8472 C   0  0  0  0  0  0  0  0  0  0  0  0
   43.1302   10.7765   16.4423 C   0  0  0  0  0  0  0  0  0  0  0  0
   40.5579   13.1038   13.2267 Br  0  0  0  0  0  0  0  0  0  0  0  0
   39.2855    9.1324   15.9927 N   0  0  0  0  0  0  0  0  0  0  0  0
   39.0502    7.8476   15.3843 C   0  0  0  0  0  0  0  0  0  0  0  0
   37.5613    7.5213   15.4083 C   0  0  0  0  0  0  0  0  0  0  0  0
   37.2280    6.2287   14.6711 C   0  0  0  0  0  0  0  0  0  0  0  0
   37.7823    6.2108   13.3499 O   0  0  0  0  0  0  0  0  0  0  0  0
   39.1901    6.4062   13.3398 C   0  0  0  0  0  0  0  0  0  0  0  0
   39.6107    7.7027   13.9833 C   0  0  0  0  0  0  0  0  0  0  0  0
   42.3895   16.4362   12.2919 N   0  0  0  0  0  0  0  0  0  0  0  0
   41.4792   17.3166   11.7449 N   0  0  0  0  0  0  0  0  0  0  0  0
   39.3962   18.1006   12.5157 O   0  0  0  0  0  0  0  0  0  0  0  0
   41.8956   16.0729   13.4165 C   0  0  0  0  0  0  0  0  0  0  0  0
   40.7260   16.7101   13.7279 O   0  0  0  0  0  0  0  0  0  0  0  0
   40.4555   17.4412   12.6012 C   0  0  0  0  0  0  0  0  0  0  0  0
  2  1  1  0
  3  2  2  0
  4  3  1  0
  5  1  1  0
  5  4  2  0
  6  2  1  0
  7  6  2  0
  8  6  1  0
  9  5  1  0
 10  9  2  0
 11 10  1  0
 12 11  2  0
 13 12  1  0
 14  9  1  0
 14 13  2  0
 15  4  1  0
 16 11  1  0
 17 16  1  0
 18 17  1  0
 19 18  1  0
 20 19  1  0
 21 20  1  0
 22 17  1  0
 22 21  1  0
 24 23  1  0
 26  3  1  0
 26 23  2  0
 27 26  1  0
 28 24  1  0
 28 25  2  0
 28 27  1  0
M  CHG  2   8  -1  24  -1
M  END
>  <pic50>  (1) 
7.348306179046631

>  <pki>  (1) 
6.908533573150635

>  <pkd>  (1) 
6.317090034484863

>  <pec50>  (1) 
6.587879657745361

$$$$
ptp1b_protein_1
     RDKit          3D

 26 28  0  0  0  0  0  0  0  0999 V2000
   43.3443   13.9250   16.4167 S   0  0  0  0  0  0  0  0  0  0  0  0
   43.1804   15.3866   15.4635 C   0  0  0  0  0  0  0  0  0  0  0  0
   42.2462   15.1423   14.4355 C   0  0  0  0  0  0  0  0  0  0  0  0
   41.6748   13.8352   14.4955 C   0  0  0  0  0  0  0  0  0  0  0  0
   42.2194   13.0391   15.5251 C   0  0  0  0  0  0  0  0  0  0  0  0
   43.9402   16.6238   15.8024 C   0  0  0  0  0  0  0  0  0  0  0  0
   44.4131   16.7563   16.9274 O   0  0  0  0  0  0  0  0  0  0  0  0
   44.0513   17.5006   14.9141 O   0  0  0  0  0  0  0  0  0  0  0  0
   42.0012   11.6181   15.9302 C   0  0  0  0  0  0  0  0  0  0  0  0
   40.7384   11.0136   15.7718 C   0  0  0  0  0  0  0  0  0  0  0  0
   40.5155    9.6987   16.1564 C   0  0  0  0  0  0  0  0  0  0  0  0
   41.5706    8.9431   16.7309 C   0  0  0  0  0  0  0  0  0  0  0  0
   42.8200    9.5275   16.9040 C   0  0  0  0  0  0  0  0  0  0  0  0
   43.0379   10.8612   16.5308 C   0  0  0  0  0  0  0  0  0  0  0  0
   40.3570   13.2148   13.2589 Br  0  0  0  0  0  0  0  0  0  0  0  0
   39.2187    9.1768   16.0326 N   0  0  0  0  0  0  0  0  0  0  0  0
   38.9656    7.8858   15.4471 C   0  0  0  0  0  0  0  0  0  0  0  0
   37.4703    7.5540   15.4839 C   0  0  0  0  0  0  0  0  0  0  0  0
   37.1238    6.2692   14.7425 C   0  0  0  0  0  0  0  0  0  0  0  0
   37.6625    6.2697   13.4102 O   0  0  0  0  0  0  0  0  0  0  0  0
   39.0832    6.4039   13.4234 C   0  0  0  0  0  0  0  0  0  0  0  0
   39.5369    7.6975   14.0514 C   0  0  0  0  0  0  0  0  0  0  0  0
   40.5816   17.8168   12.7028 C   0  0  0  0  0  0  0  0  0  0  0  0
   41.0334   17.0581   13.9207 C   0  0  0  0  0  0  0  0  0  0  0  0
   39.3096   17.4673   12.3554 F   0  0  0  0  0  0  0  0  0  0  0  0
   41.9131   16.0388   13.4770 O   0  0  0  0  0  0  0  0  0  0  0  0
  2  1  1  0
  3  2  2  0
  4  3  1  0
  5  1  1  0
  5  4  2  0
  6  2  1  0
  7  6  2  0
  8  6  1  0
  9  5  1  0
 10  9  2  0
 11 10  1  0
 12 11  2  0
 13 12  1  0
 14  9  1  0
 14 13  2  0
 15  4  1  0
 16 11  1  0
 17 16  1  0
 18 17  1  0
 19 18  1  0
 20 19  1  0
 21 20  1  0
 22 17  1  0
 22 21  1  0
 24 23  1  0
 25 23  1  0
 26  3  1  0
 26 24  1  0
M  CHG  1   8  -1
M  END
>  <pic50>  (2) 
7.517952919006348

>  <pki>  (2) 
7.1006364822387695

>  <pkd>  (2) 
6.473458766937256

>  <pec50>  (2) 
6.684624195098877

$$$$
ptp1b_protein_2
     RDKit          3D

 26 28  0  0  0  0  0  0  0  0999 V2000
   43.3511   13.9295   16.3995 S   0  0  0  0  0  0  0  0  0  0  0  0
   43.2096   15.3772   15.4196 C   0  0  0  0  0  0  0  0  0  0  0  0
   42.3176   15.0983   14.3637 C   0  0  0  0  0  0  0  0  0  0  0  0
   41.7059   13.8077   14.4699 C   0  0  0  0  0  0  0  0  0  0  0  0
   42.2255   13.0297   15.5207 C   0  0  0  0  0  0  0  0  0  0  0  0
   43.9488   16.6247   15.7690 C   0  0  0  0  0  0  0  0  0  0  0  0
   44.4086   16.7508   16.9021 O   0  0  0  0  0  0  0  0  0  0  0  0
   44.0493   17.5119   14.8892 O   0  0  0  0  0  0  0  0  0  0  0  0
   42.0085   11.6118   15.9306 C   0  0  0  0  0  0  0  0  0  0  0  0
   40.7474   11.0040   15.7705 C   0  0  0  0  0  0  0  0  0  0  0  0
   40.5306    9.6862   16.1528 C   0  0  0  0  0  0  0  0  0  0  0  0
   41.5931    8.9301   16.7135 C   0  0  0  0  0  0  0  0  0  0  0  0
   42.8422    9.5177   16.8838 C   0  0  0  0  0  0  0  0  0  0  0  0
   43.0497   10.8575   16.5238 C   0  0  0  0  0  0  0  0  0  0  0  0
   40.3781   13.1895   13.2400 Br  0  0  0  0  0  0  0  0  0  0  0  0
   39.2320    9.1599   16.0393 N   0  0  0  0  0  0  0  0  0  0  0  0
   38.9803    7.8677   15.4487 C   0  0  0  0  0  0  0  0  0  0  0  0
   37.4847    7.5459   15.4766 C   0  0  0  0  0  0  0  0  0  0  0  0
   37.1326    6.2644   14.7314 C   0  0  0  0  0  0  0  0  0  0  0  0
   37.6798    6.2602   13.4025 O   0  0  0  0  0  0  0  0  0  0  0  0
   39.1004    6.3940   13.4158 C   0  0  0  0  0  0  0  0  0  0  0  0
   39.5555    7.6845   14.0536 C   0  0  0  0  0  0  0  0  0  0  0  0
   39.4140   18.1310   12.4996 O   0  0  0  0  0  0  0  0  0  0  0  0
   42.0624   15.9515   13.3425 O   0  0  0  0  0  0  0  0  0  0  0  0
   40.6417   17.5606   12.3835 C   0  0  0  0  0  0  0  0  0  0  0  0
   41.0606   16.8966   13.6470 C   0  0  0  0  0  0  0  0  0  0  0  0
  2  1  1  0
  3  2  2  0
  4  3  1  0
  5  1  1  0
  5  4  2  0
  6  2  1  0
  7  6  2  0
  8  6  1  0
  9  5  1  0
 10  9  2  0
 11 10  1  0
 12 11  2  0
 13 12  1  0
 14  9  1  0
 14 13  2  0
 15  4  1  0
 16 11  1  0
 17 16  1  0
 18 17  1  0
 19 18  1  0
 20 19  1  0
 21 20  1  0
 22 17  1  0
 22 21  1  0
 24  3  1  0
 25 23  1  0
 26 24  1  0
 26 25  1  0
M  CHG  1   8  -1
M  END
>  <pic50>  (3) 
7.418774127960205

>  <pki>  (3) 
7.028226852416992

>  <pkd>  (3) 
6.408008098602295

>  <pec50>  (3) 
6.607040882110596

$$$$
ptp1b_protein_3
     RDKit          3D

 28 30  0  0  0  0  0  0  0  0999 V2000
   43.3468   13.9327   16.4776 S   0  0  0  0  0  0  0  0  0  0  0  0
   43.2311   15.3848   15.4742 C   0  0  0  0  0  0  0  0  0  0  0  0
   42.3198   15.0933   14.4264 C   0  0  0  0  0  0  0  0  0  0  0  0
   41.7446   13.7777   14.5073 C   0  0  0  0  0  0  0  0  0  0  0  0
   42.2690   13.0026   15.5518 C   0  0  0  0  0  0  0  0  0  0  0  0
   43.9713   16.6578   15.7451 C   0  0  0  0  0  0  0  0  0  0  0  0
   44.4662   16.8439   16.8598 O   0  0  0  0  0  0  0  0  0  0  0  0
   44.0328   17.4940   14.8075 O   0  0  0  0  0  0  0  0  0  0  0  0
   42.0340   11.5893   15.9338 C   0  0  0  0  0  0  0  0  0  0  0  0
   40.7585   11.0009   15.7760 C   0  0  0  0  0  0  0  0  0  0  0  0
   40.5206    9.6785   16.1478 C   0  0  0  0  0  0  0  0  0  0  0  0
   41.5796    8.9079   16.6967 C   0  0  0  0  0  0  0  0  0  0  0  0
   42.8458    9.4767   16.8649 C   0  0  0  0  0  0  0  0  0  0  0  0
   43.0779   10.8144   16.5031 C   0  0  0  0  0  0  0  0  0  0  0  0
   40.4601   13.1578   13.2658 Br  0  0  0  0  0  0  0  0  0  0  0  0
   39.2232    9.1576   16.0212 N   0  0  0  0  0  0  0  0  0  0  0  0
   38.9891    7.8892   15.3939 C   0  0  0  0  0  0  0  0  0  0  0  0
   37.4987    7.5478   15.4262 C   0  0  0  0  0  0  0  0  0  0  0  0
   37.1756    6.2537   14.6867 C   0  0  0  0  0  0  0  0  0  0  0  0
   37.7124    6.2481   13.3539 O   0  0  0  0  0  0  0  0  0  0  0  0
   39.1304    6.4544   13.3246 C   0  0  0  0  0  0  0  0  0  0  0  0
   39.5594    7.7371   13.9883 C   0  0  0  0  0  0  0  0  0  0  0  0
   39.4523   18.1863   12.3325 O   0  0  0  0  0  0  0  0  0  0  0  0
   40.5427   17.5132   12.3181 C   0  0  0  0  0  0  0  0  0  0  0  0
   40.9290   16.8207   13.5632 C   0  0  0  0  0  0  0  0  0  0  0  0
   40.3179   16.9459   14.6101 O   0  0  0  0  0  0  0  0  0  0  0  0
   41.9973   15.9701   13.4361 N   0  0  0  0  0  0  0  0  0  0  0  0
   41.2930   17.4478   11.3154 O   0  0  0  0  0  0  0  0  0  0  0  0
  2  1  1  0
  3  2  2  0
  4  3  1  0
  5  1  1  0
  5  4  2  0
  6  2  1  0
  7  6  2  0
  8  6  1  0
  9  5  1  0
 10  9  2  0
 11 10  1  0
 12 11  2  0
 13 12  1  0
 14  9  1  0
 14 13  2  0
 15  4  1  0
 16 11  1  0
 17 16  1  0
 18 17  1  0
 19 18  1  0
 20 19  1  0
 21 20  1  0
 22 17  1  0
 22 21  1  0
 24 23  2  0
 25 24  1  0
 26 25  2  0
 27  3  1  0
 27 25  1  0
 28 24  1  0
M  CHG  2   8  -1  28  -1
M  END
>  <pic50>  (4) 
7.140105247497559

>  <pki>  (4) 
6.750345230102539

>  <pkd>  (4) 
6.348526477813721

>  <pec50>  (4) 
6.545076847076416

$$$$
ptp1b_protein_4
     RDKit          3D

 27 29  0  0  0  0  0  0  0  0999 V2000
   43.3350   13.9363   16.4426 S   0  0  0  0  0  0  0  0  0  0  0  0
   43.2400   15.3883   15.4806 C   0  0  0  0  0  0  0  0  0  0  0  0
   42.3381   15.1099   14.4310 C   0  0  0  0  0  0  0  0  0  0  0  0
   41.7417   13.8073   14.4987 C   0  0  0  0  0  0  0  0  0  0  0  0
   42.2635   13.0197   15.5293 C   0  0  0  0  0  0  0  0  0  0  0  0
   43.9822   16.6440   15.7715 C   0  0  0  0  0  0  0  0  0  0  0  0
   44.4743   16.8067   16.8900 O   0  0  0  0  0  0  0  0  0  0  0  0
   44.0820   17.4991   14.8444 O   0  0  0  0  0  0  0  0  0  0  0  0
   42.0375   11.6016   15.9142 C   0  0  0  0  0  0  0  0  0  0  0  0
   40.7667   11.0119   15.7559 C   0  0  0  0  0  0  0  0  0  0  0  0
   40.5331    9.6915   16.1300 C   0  0  0  0  0  0  0  0  0  0  0  0
   41.5901    8.9298   16.6932 C   0  0  0  0  0  0  0  0  0  0  0  0
   42.8507    9.4987   16.8618 C   0  0  0  0  0  0  0  0  0  0  0  0
   43.0786   10.8305   16.4924 C   0  0  0  0  0  0  0  0  0  0  0  0
   40.4092   13.2263   13.2565 Br  0  0  0  0  0  0  0  0  0  0  0  0
   39.2393    9.1776   15.9937 N   0  0  0  0  0  0  0  0  0  0  0  0
   38.9997    7.8958   15.3917 C   0  0  0  0  0  0  0  0  0  0  0  0
   37.5080    7.5603   15.4256 C   0  0  0  0  0  0  0  0  0  0  0  0
   37.1809    6.2619   14.7017 C   0  0  0  0  0  0  0  0  0  0  0  0
   37.7222    6.2366   13.3734 O   0  0  0  0  0  0  0  0  0  0  0  0
   39.1363    6.4239   13.3603 C   0  0  0  0  0  0  0  0  0  0  0  0
   39.5734    7.7136   13.9951 C   0  0  0  0  0  0  0  0  0  0  0  0
   40.4865   17.5036   12.5244 C   0  0  0  0  0  0  0  0  0  0  0  0
   41.2111   17.4385   11.4992 O   0  0  0  0  0  0  0  0  0  0  0  0
   39.3669   18.0744   12.5329 O   0  0  0  0  0  0  0  0  0  0  0  0
   42.0555   15.9981   13.4574 O   0  0  0  0  0  0  0  0  0  0  0  0
   40.9973   16.9034   13.8062 C   0  0  0  0  0  0  0  0  0  0  0  0
  2  1  1  0
  3  2  2  0
  4  3  1  0
  5  1  1  0
  5  4  2  0
  6  2  1  0
  7  6  2  0
  8  6  1  0
  9  5  1  0
 10  9  2  0
 11 10  1  0
 12 11  2  0
 13 12  1  0
 14  9  1  0
 14 13  2  0
 15  4  1  0
 16 11  1  0
 17 16  1  0
 18 17  1  0
 19 18  1  0
 20 19  1  0
 21 20  1  0
 22 17  1  0
 22 21  1  0
 24 23  2  0
 25 23  1  0
 26  3  1  0
 27 23  1  0
 27 26  1  0
M  CHG  2   8  -1  25  -1
M  END
>  <pic50>  (5) 
7.0733323097229

>  <pki>  (5) 
6.813964366912842

>  <pkd>  (5) 
6.367233753204346

>  <pec50>  (5) 
6.553696155548096

$$$$
