ptp1b_protein
     RDKit          3D

 27 29  0  0  0  0  0  0  0  0999 V2000
   43.4780   13.8775   16.5636 S   0  0  0  0  0  0  0  0  0  0  0  0
   43.2757   15.2850   15.5581 C   0  0  0  0  0  0  0  0  0  0  0  0
   42.3919   15.0022   14.5431 C   0  0  0  0  0  0  0  0  0  0  0  0
   41.8737   13.6828   14.5582 C   0  0  0  0  0  0  0  0  0  0  0  0
   42.3746   12.9328   15.6396 C   0  0  0  0  0  0  0  0  0  0  0  0
   44.0382   16.5342   15.8295 C   0  0  0  0  0  0  0  0  0  0  0  0
   44.7847   16.5943   16.8036 O   0  0  0  0  0  0  0  0  0  0  0  0
   43.9111   17.5175   15.0247 O   0  0  0  0  0  0  0  0  0  0  0  0
   42.0734   11.5427   16.0320 C   0  0  0  0  0  0  0  0  0  0  0  0
   40.7948   10.9983   15.8435 C   0  0  0  0  0  0  0  0  0  0  0  0
   40.5136    9.6819   16.1831 C   0  0  0  0  0  0  0  0  0  0  0  0
   41.5209    8.8822   16.7950 C   0  0  0  0  0  0  0  0  0  0  0  0
   42.7896    9.4058   17.0069 C   0  0  0  0  0  0  0  0  0  0  0  0
   43.0697   10.7369   16.6172 C   0  0  0  0  0  0  0  0  0  0  0  0
   40.5944   13.0831   13.2378 Br  0  0  0  0  0  0  0  0  0  0  0  0
   42.0412   15.9192   13.5531 O   0  0  0  0  0  0  0  0  0  0  0  0
   40.8527   16.6775   13.8628 C   0  0  0  0  0  0  0  0  0  0  0  0
   40.4981   17.3783   12.5454 C   0  0  0  0  0  0  0  0  0  0  0  0
   39.3524   17.8503   12.4398 O   0  0  0  0  0  0  0  0  0  0  0  0
   41.3649   17.4123   11.6216 O   0  0  0  0  0  0  0  0  0  0  0  0
   39.2178    9.2279   15.9492 N   0  0  0  0  0  0  0  0  0  0  0  0
   38.9533    7.8269   15.5605 C   0  0  0  0  0  0  0  0  0  0  0  0
   37.4273    7.6318   15.5815 C   0  0  0  0  0  0  0  0  0  0  0  0
   37.0380    6.2221   15.0690 C   0  0  0  0  0  0  0  0  0  0  0  0
   37.6202    5.9499   13.6539 C   0  0  0  0  0  0  0  0  0  0  0  0
   39.1537    6.1649   13.6440 C   0  0  0  0  0  0  0  0  0  0  0  0
   39.5391    7.5295   14.1704 C   0  0  0  0  0  0  0  0  0  0  0  0
  2  1  1  0
  3  2  2  0
  4  3  1  0
  5  1  1  0
  5  4  2  0
  6  2  1  0
  7  6  2  0
  8  6  1  0
  9  5  1  0
 10  9  2  0
 11 10  1  0
 12 11  1  0
 13 12  1  0
 14  9  1  0
 14 13  1  0
 15  4  1  0
 16  3  1  0
 17 16  1  0
 18 17  1  0
 19 18  1  0
 20 18  2  0
 21 11  1  0
 22 21  1  0
 23 22  1  0
 24 23  1  0
 25 24  1  0
 26 25  1  0
 27 22  1  0
 27 26  1  0
M  CHG  2   8  -1  19  -1
M  END
>  <pic50>  (1) 
7.158730506896973

>  <pki>  (1) 
6.921593189239502

>  <pkd>  (1) 
6.625051021575928

>  <pec50>  (1) 
6.589460372924805

$$$$
ptp1b_protein
     RDKit          3D

 30 32  0  0  0  0  0  0  0  0999 V2000
   43.4560   13.9165   16.5717 S   0  0  0  0  0  0  0  0  0  0  0  0
   43.2742   15.3222   15.5698 C   0  0  0  0  0  0  0  0  0  0  0  0
   42.3903   15.0336   14.5239 C   0  0  0  0  0  0  0  0  0  0  0  0
   41.8839   13.7228   14.5342 C   0  0  0  0  0  0  0  0  0  0  0  0
   42.3584   12.9650   15.6158 C   0  0  0  0  0  0  0  0  0  0  0  0
   44.0139   16.5783   15.8892 C   0  0  0  0  0  0  0  0  0  0  0  0
   44.5669   16.6701   16.9877 O   0  0  0  0  0  0  0  0  0  0  0  0
   44.0472   17.4976   15.0161 O   0  0  0  0  0  0  0  0  0  0  0  0
   42.0748   11.5620   16.0440 C   0  0  0  0  0  0  0  0  0  0  0  0
   40.8085   11.0150   15.8785 C   0  0  0  0  0  0  0  0  0  0  0  0
   40.5130    9.7000   16.2193 C   0  0  0  0  0  0  0  0  0  0  0  0
   41.5273    8.9110   16.8294 C   0  0  0  0  0  0  0  0  0  0  0  0
   42.7961    9.4343   17.0207 C   0  0  0  0  0  0  0  0  0  0  0  0
   43.0744   10.7694   16.6311 C   0  0  0  0  0  0  0  0  0  0  0  0
   40.6197   13.1583   13.1887 Br  0  0  0  0  0  0  0  0  0  0  0  0
   42.0838   15.9788   13.5529 O   0  0  0  0  0  0  0  0  0  0  0  0
   40.9153   16.7597   13.8264 C   0  0  0  0  0  0  0  0  0  0  0  0
   40.5013   17.3875   12.4852 C   0  0  0  0  0  0  0  0  0  0  0  0
   39.3648   17.8798   12.4309 O   0  0  0  0  0  0  0  0  0  0  0  0
   41.3265   17.3831   11.5117 O   0  0  0  0  0  0  0  0  0  0  0  0
   39.2090    9.2210   15.9562 N   0  0  0  0  0  0  0  0  0  0  0  0
   38.9356    7.8014   15.6467 C   0  0  0  0  0  0  0  0  0  0  0  0
   37.4132    7.6556   15.5139 C   0  0  0  0  0  0  0  0  0  0  0  0
   37.0144    6.2480   15.1373 C   0  0  0  0  0  0  0  0  0  0  0  0
   37.6874    5.9295   13.8767 N   0  0  0  0  0  0  0  0  0  0  0  0
   39.1772    5.9999   13.8611 C   0  0  0  0  0  0  0  0  0  0  0  0
   39.5956    7.4100   14.3108 C   0  0  0  0  0  0  0  0  0  0  0  0
   37.0510    5.4959   12.7557 C   0  0  0  0  0  0  0  0  0  0  0  0
   37.6622    5.1935   11.7133 O   0  0  0  0  0  0  0  0  0  0  0  0
   35.5343    5.4742   12.7059 C   0  0  0  0  0  0  0  0  0  0  0  0
  2  1  1  0
  3  2  2  0
  4  3  1  0
  5  1  1  0
  5  4  2  0
  6  2  1  0
  7  6  2  0
  8  6  1  0
  9  5  1  0
 10  9  2  0
 11 10  1  0
 12 11  1  0
 13 12  1  0
 14  9  1  0
 14 13  2  0
 15  4  1  0
 16  3  1  0
 17 16  1  0
 18 17  1  0
 19 18  1  0
 20 18  2  0
 21 11  1  0
 22 21  1  0
 23 22  1  0
 24 23  1  0
 25 24  1  0
 26 25  1  0
 27 22  1  0
 27 26  1  0
 28 25  1  0
 29 28  2  0
 30 28  1  0
M  CHG  2   8  -1  19  -1
M  END
>  <pic50>  (2) 
6.497427940368652

>  <pki>  (2) 
6.589296340942383

>  <pkd>  (2) 
6.541530132293701

>  <pec50>  (2) 
6.5084452629089355

$$$$
ptp1b_protein
     RDKit          3D

 26 28  0  0  0  0  0  0  0  0999 V2000
   43.4722   13.8658   16.6375 S   0  0  0  0  0  0  0  0  0  0  0  0
   43.2497   15.2527   15.6298 C   0  0  0  0  0  0  0  0  0  0  0  0
   42.4009   14.9205   14.5784 C   0  0  0  0  0  0  0  0  0  0  0  0
   41.9057   13.5987   14.6070 C   0  0  0  0  0  0  0  0  0  0  0  0
   42.3922   12.8900   15.7115 C   0  0  0  0  0  0  0  0  0  0  0  0
   43.9327   16.5470   15.9385 C   0  0  0  0  0  0  0  0  0  0  0  0
   44.4354   16.7035   17.0539 O   0  0  0  0  0  0  0  0  0  0  0  0
   44.0247   17.4316   15.0413 O   0  0  0  0  0  0  0  0  0  0  0  0
   42.1126   11.4977   16.1241 C   0  0  0  0  0  0  0  0  0  0  0  0
   40.8232   10.9709   16.0212 C   0  0  0  0  0  0  0  0  0  0  0  0
   40.5460    9.6366   16.3387 C   0  0  0  0  0  0  0  0  0  0  0  0
   41.5945    8.8282   16.8755 C   0  0  0  0  0  0  0  0  0  0  0  0
   42.8871    9.3538   16.9857 C   0  0  0  0  0  0  0  0  0  0  0  0
   43.1509   10.6897   16.6324 C   0  0  0  0  0  0  0  0  0  0  0  0
   40.6292   12.9754   13.3014 Br  0  0  0  0  0  0  0  0  0  0  0  0
   42.0826   15.8077   13.5626 O   0  0  0  0  0  0  0  0  0  0  0  0
   40.9581   16.6306   13.8740 C   0  0  0  0  0  0  0  0  0  0  0  0
   40.5550   17.3522   12.5730 C   0  0  0  0  0  0  0  0  0  0  0  0
   39.4394   17.8974   12.5643 O   0  0  0  0  0  0  0  0  0  0  0  0
   41.3360   17.3422   11.5971 O   0  0  0  0  0  0  0  0  0  0  0  0
   39.2424    9.1720   16.1321 N   0  0  0  0  0  0  0  0  0  0  0  0
   38.9703    7.7900   15.7332 C   0  0  0  0  0  0  0  0  0  0  0  0
   37.4583    7.5249   15.6306 C   0  0  0  0  0  0  0  0  0  0  0  0
   37.3713    6.2915   14.7270 C   0  0  0  0  0  0  0  0  0  0  0  0
   38.6001    6.3894   13.7600 C   0  0  0  0  0  0  0  0  0  0  0  0
   39.5116    7.4600   14.3202 C   0  0  0  0  0  0  0  0  0  0  0  0
  2  1  1  0
  3  2  2  0
  4  3  1  0
  5  1  1  0
  5  4  2  0
  6  2  1  0
  7  6  2  0
  8  6  1  0
  9  5  1  0
 10  9  2  0
 11 10  1  0
 12 11  2  0
 13 12  1  0
 14  9  1  0
 14 13  1  0
 15  4  1  0
 16  3  1  0
 17 16  1  0
 18 17  1  0
 19 18  1  0
 20 18  2  0
 21 11  1  0
 22 21  1  0
 23 22  1  0
 24 23  1  0
 25 24  1  0
 26 22  1  0
 26 25  1  0
M  CHG  2   8  -1  19  -1
M  END
>  <pic50>  (3) 
7.318033218383789

>  <pki>  (3) 
7.0024542808532715

>  <pkd>  (3) 
6.665480136871338

>  <pec50>  (3) 
6.669544696807861

$$$$
