ptp1b_protein_0
     RDKit          3D

 26 28  0  0  0  0  0  0  0  0999 V2000
   42.5191    8.7375   17.3471 C   0  0  0  0  0  0  0  0  0  0  0  0
   37.5067    7.7162   13.4841 C   0  0  0  0  0  0  0  0  0  0  0  0
   43.1367   13.0815   16.1122 C   0  0  0  0  0  0  0  0  0  0  0  0
   37.1134    8.2199   14.7296 C   0  0  0  0  0  0  0  0  0  0  0  0
   41.1814   16.9384   11.7164 O   0  0  0  0  0  0  0  0  0  0  0  0
   40.2708    7.7448   16.7338 C   0  0  0  0  0  0  0  0  0  0  0  0
   40.7113   16.9312   14.1195 C   0  0  0  0  0  0  0  0  0  0  0  0
   43.7627   16.4087   12.8085 O   0  0  0  0  0  0  0  0  0  0  0  0
   43.3652   16.9215   13.8857 C   0  0  0  0  0  0  0  0  0  0  0  0
   42.1613   10.7930   16.1472 C   0  0  0  0  0  0  0  0  0  0  0  0
   41.1131    9.9817   15.9985 N   0  0  0  0  0  0  0  0  0  0  0  0
   43.0938   14.4218   15.7149 C   0  0  0  0  0  0  0  0  0  0  0  0
   41.3248    8.8263   16.6715 C   0  0  0  0  0  0  0  0  0  0  0  0
   39.7179    7.2442   14.3246 C   0  0  0  0  0  0  0  0  0  0  0  0
   39.2689   17.7203   12.4514 O   0  0  0  0  0  0  0  0  0  0  0  0
   39.3050    7.7255   15.5805 C   0  0  0  0  0  0  0  0  0  0  0  0
   41.2746   13.9195   14.1772 C   0  0  0  0  0  0  0  0  0  0  0  0
   42.2128   12.1657   15.5926 C   0  0  0  0  0  0  0  0  0  0  0  0
   38.8009    7.1909   13.2852 C   0  0  0  0  0  0  0  0  0  0  0  0
   43.4286   10.1605   17.0945 S   0  0  0  0  0  0  0  0  0  0  0  0
   40.3878   17.1980   12.6378 C   0  0  0  0  0  0  0  0  0  0  0  0
   43.9905   17.8095   14.5413 O   0  0  0  0  0  0  0  0  0  0  0  0
   41.3178   12.5706   14.5782 C   0  0  0  0  0  0  0  0  0  0  0  0
   42.1520   14.8551   14.7784 C   0  0  0  0  0  0  0  0  0  0  0  0
   42.0750   16.3532   14.5082 C   0  0  0  0  0  0  0  0  0  0  0  0
   38.0172    8.2249   15.7864 C   0  0  0  0  0  0  0  0  0  0  0  0
  4  2  2  0
  9  8  1  0
 11 10  2  0
 12  3  2  0
 13  1  2  0
 13  6  1  0
 13 11  1  0
 16  6  1  0
 16 14  1  0
 18  3  1  0
 18 10  1  0
 19  2  1  0
 19 14  2  0
 20  1  1  0
 20 10  1  0
 21  5  2  0
 21  7  1  0
 21 15  1  0
 22  9  2  0
 23 17  1  0
 23 18  2  0
 24 12  1  0
 24 17  2  0
 25  7  1  0
 25  9  1  0
 25 24  1  0
 26  4  1  0
 26 16  2  0
M  CHG  2   8  -1  15  -1
M  END
>  <pic50>  (1) 
5.977182865142822

>  <pki>  (1) 
5.8601975440979

>  <pkd>  (1) 
5.627494812011719

>  <pec50>  (1) 
5.751455783843994

$$$$
ptp1b_protein_1
     RDKit          3D

 29 31  0  0  0  0  0  0  0  0999 V2000
   39.4872    6.8255   13.8497 C   0  0  0  0  0  0  0  0  0  0  0  0
   42.3461   15.8210   14.1346 C   0  0  0  0  0  0  0  0  0  0  0  0
   42.2686   12.1165   16.5094 C   0  0  0  0  0  0  0  0  0  0  0  0
   41.5622   12.2577   15.3057 C   0  0  0  0  0  0  0  0  0  0  0  0
   40.5810   13.4400   12.9635 Br  0  0  0  0  0  0  0  0  0  0  0  0
   38.7073    9.3978   16.4813 N   0  0  0  0  0  0  0  0  0  0  0  0
   41.2915   17.0754   11.7209 O   0  0  0  0  0  0  0  0  0  0  0  0
   41.0286    8.5179   16.0158 S   0  0  0  0  0  0  0  0  0  0  0  0
   40.5382   17.1484   12.7129 C   0  0  0  0  0  0  0  0  0  0  0  0
   43.4412   16.8996   14.3730 C   0  0  0  0  0  0  0  0  0  0  0  0
   41.6063   13.4366   14.5647 C   0  0  0  0  0  0  0  0  0  0  0  0
   39.3429    8.4373   15.8061 C   0  0  0  0  0  0  0  0  0  0  0  0
   40.9367    9.9584   16.9563 C   0  0  0  0  0  0  0  0  0  0  0  0
   40.9412   16.5405   14.0758 C   0  0  0  0  0  0  0  0  0  0  0  0
   38.7143    7.5120   14.8205 C   0  0  0  0  0  0  0  0  0  0  0  0
   43.1544   14.3666   16.1285 C   0  0  0  0  0  0  0  0  0  0  0  0
   41.9810   11.1883   18.8649 C   0  0  0  0  0  0  0  0  0  0  0  0
   43.9486   17.3582   13.3076 O   0  0  0  0  0  0  0  0  0  0  0  0
   42.3819   14.5412   14.9774 C   0  0  0  0  0  0  0  0  0  0  0  0
   36.7110    6.4319   13.9559 C   0  0  0  0  0  0  0  0  0  0  0  0
   42.1520   10.8210   17.3662 C   0  0  0  0  0  0  0  0  0  0  0  0
   37.4919    5.7570   12.9994 C   0  0  0  0  0  0  0  0  0  0  0  0
   43.4732   10.0187   17.2187 C   0  0  0  0  0  0  0  0  0  0  0  0
   39.5956   10.2257   17.1109 C   0  0  0  0  0  0  0  0  0  0  0  0
   43.6759   17.2844   15.5079 O   0  0  0  0  0  0  0  0  0  0  0  0
   43.1190   13.1914   16.8839 C   0  0  0  0  0  0  0  0  0  0  0  0
   37.3324    7.2969   14.8499 C   0  0  0  0  0  0  0  0  0  0  0  0
   39.4120   17.6781   12.6543 O   0  0  0  0  0  0  0  0  0  0  0  0
   38.8792    5.9530   12.9552 C   0  0  0  0  0  0  0  0  0  0  0  0
  4  3  2  0
  9  7  2  0
 10  2  1  0
 11  4  1  0
 11  5  1  0
 12  6  2  0
 12  8  1  0
 13  8  1  0
 14  2  1  0
 14  9  1  0
 15  1  2  0
 15 12  1  0
 18 10  2  0
 19  2  1  0
 19 11  2  0
 19 16  1  0
 21  3  1  0
 21 13  1  0
 21 17  1  0
 22 20  1  0
 23 21  1  0
 24  6  1  0
 24 13  2  0
 25 10  1  0
 26  3  1  0
 26 16  2  0
 27 15  1  0
 27 20  2  0
 28  9  1  0
 29  1  1  0
 29 22  2  0
M  CHG  2  25  -1  28  -1
M  END
>  <pic50>  (2) 
6.690764904022217

>  <pki>  (2) 
6.389565467834473

>  <pkd>  (2) 
6.115194797515869

>  <pec50>  (2) 
6.212296962738037

$$$$
ptp1b_protein_2
     RDKit          3D

 28 30  0  0  0  0  0  0  0  0999 V2000
   43.1939   10.6091   16.6998 C   0  0  0  0  0  0  0  0  0  0  0  0
   43.2737   15.1741   15.7329 C   0  0  0  0  0  0  0  0  0  0  0  0
   40.5339   17.2623   12.5658 C   0  0  0  0  0  0  0  0  0  0  0  0
   42.4131   14.8633   14.6770 C   0  0  0  0  0  0  0  0  0  0  0  0
   43.4653   13.7910   16.7689 S   0  0  0  0  0  0  0  0  0  0  0  0
   36.7758    7.6432   14.5365 C   0  0  0  0  0  0  0  0  0  0  0  0
   40.5717    9.6257   16.7307 C   0  0  0  0  0  0  0  0  0  0  0  0
   38.7760    8.4737   15.6376 C   0  0  0  0  0  0  0  0  0  0  0  0
   42.1011   15.7300   13.6424 O   0  0  0  0  0  0  0  0  0  0  0  0
   37.5809    6.9673   13.6061 C   0  0  0  0  0  0  0  0  0  0  0  0
   41.3593   17.3064   11.6187 O   0  0  0  0  0  0  0  0  0  0  0  0
   38.9603    7.0441   13.6924 C   0  0  0  0  0  0  0  0  0  0  0  0
   39.5852    7.8067   14.6910 C   0  0  0  0  0  0  0  0  0  0  0  0
   41.6308    8.8064   17.1495 C   0  0  0  0  0  0  0  0  0  0  0  0
   39.9412    6.1419   12.5416 Br  0  0  0  0  0  0  0  0  0  0  0  0
   44.6005   16.5429   17.1332 O   0  0  0  0  0  0  0  0  0  0  0  0
   43.9861   16.4496   16.0313 C   0  0  0  0  0  0  0  0  0  0  0  0
   42.1304   11.4439   16.2882 C   0  0  0  0  0  0  0  0  0  0  0  0
   43.9746   17.3728   15.1877 O   0  0  0  0  0  0  0  0  0  0  0  0
   40.8185   10.9414   16.3248 C   0  0  0  0  0  0  0  0  0  0  0  0
   40.6689   12.8352   13.4725 Br  0  0  0  0  0  0  0  0  0  0  0  0
   39.2711    9.1642   16.7307 O   0  0  0  0  0  0  0  0  0  0  0  0
   37.3780    8.3803   15.5635 C   0  0  0  0  0  0  0  0  0  0  0  0
   42.3908   12.8196   15.8381 C   0  0  0  0  0  0  0  0  0  0  0  0
   41.9057   13.5447   14.7540 C   0  0  0  0  0  0  0  0  0  0  0  0
   40.8964   16.5046   13.8573 C   0  0  0  0  0  0  0  0  0  0  0  0
   39.4141   17.8193   12.5312 O   0  0  0  0  0  0  0  0  0  0  0  0
   42.9452    9.2950   17.1314 C   0  0  0  0  0  0  0  0  0  0  0  0
  4  2  2  0
  5  2  1  0
  9  4  1  0
 10  6  2  0
 11  3  2  0
 12 10  1  0
 13  8  1  0
 13 12  2  0
 14  7  1  0
 15 12  1  0
 17  2  1  0
 17 16  1  0
 18  1  2  0
 19 17  2  0
 20  7  2  0
 20 18  1  0
 22  7  1  0
 22  8  1  0
 23  6  1  0
 23  8  2  0
 24  5  1  0
 24 18  1  0
 25  4  1  0
 25 21  1  0
 25 24  2  0
 26  3  1  0
 26  9  1  0
 27  3  1  0
 28  1  1  0
 28 14  2  0
M  CHG  2  16  -1  27  -1
M  END
>  <pic50>  (3) 
7.038640022277832

>  <pki>  (3) 
7.094789981842041

>  <pkd>  (3) 
6.703437328338623

>  <pec50>  (3) 
6.570681095123291

$$$$
ptp1b_protein_3
     RDKit          3D

 28 30  0  0  0  0  0  0  0  0999 V2000
   43.9510   17.8121   14.9521 O   0  0  0  0  0  0  0  0  0  0  0  0
   42.1028   11.5919   15.9349 C   0  0  0  0  0  0  0  0  0  0  0  0
   41.7185    8.9604   16.9935 C   0  0  0  0  0  0  0  0  0  0  0  0
   41.6829   15.1156   14.3225 C   0  0  0  0  0  0  0  0  0  0  0  0
   40.6088    9.7590   16.6241 C   0  0  0  0  0  0  0  0  0  0  0  0
   41.4407   13.7416   14.6637 C   0  0  0  0  0  0  0  0  0  0  0  0
   40.4730   16.8995   12.6233 C   0  0  0  0  0  0  0  0  0  0  0  0
   40.8055   11.0674   16.1313 C   0  0  0  0  0  0  0  0  0  0  0  0
   40.4616   15.9543   13.8512 C   0  0  0  0  0  0  0  0  0  0  0  0
   43.4966   13.6694   15.9258 C   0  0  0  0  0  0  0  0  0  0  0  0
   43.8138   14.9591   15.4824 C   0  0  0  0  0  0  0  0  0  0  0  0
   43.6693   17.1580   12.8586 O   0  0  0  0  0  0  0  0  0  0  0  0
   37.3489    6.3760   13.4339 C   0  0  0  0  0  0  0  0  0  0  0  0
   38.5812    5.9600   12.9062 C   0  0  0  0  0  0  0  0  0  0  0  0
   42.3356   13.0013   15.4876 C   0  0  0  0  0  0  0  0  0  0  0  0
   39.5280   17.7289   12.5921 O   0  0  0  0  0  0  0  0  0  0  0  0
   43.2037   10.7495   16.2612 C   0  0  0  0  0  0  0  0  0  0  0  0
   39.7683    6.6021   13.2982 C   0  0  0  0  0  0  0  0  0  0  0  0
   40.3399   13.1058   14.1776 F   0  0  0  0  0  0  0  0  0  0  0  0
   43.4862   16.9948   14.0925 C   0  0  0  0  0  0  0  0  0  0  0  0
   43.0065    9.4571   16.7990 C   0  0  0  0  0  0  0  0  0  0  0  0
   38.4380    9.1226   15.6735 N   0  0  0  0  0  0  0  0  0  0  0  0
   42.9491   15.6728   14.6292 C   0  0  0  0  0  0  0  0  0  0  0  0
   39.2340    9.2019   16.8718 C   0  0  0  0  0  0  0  0  0  0  0  0
   37.3158    7.4115   14.3803 C   0  0  0  0  0  0  0  0  0  0  0  0
   41.2581   16.7490   11.6978 O   0  0  0  0  0  0  0  0  0  0  0  0
   38.5180    8.0246   14.7892 C   0  0  0  0  0  0  0  0  0  0  0  0
   39.7437    7.6355   14.2265 C   0  0  0  0  0  0  0  0  0  0  0  0
  5  3  2  0
  6  4  2  0
  8  2  2  0
  8  5  1  0
  9  4  1  0
  9  7  1  0
 11 10  1  0
 14 13  2  0
 15  2  1  0
 15  6  1  0
 15 10  2  0
 16  7  1  0
 17  2  1  0
 18 14  1  0
 19  6  1  0
 20  1  1  0
 20 12  2  0
 21  3  1  0
 21 17  2  0
 23  4  1  0
 23 11  2  0
 23 20  1  0
 24  5  1  0
 24 22  1  0
 25 13  1  0
 26  7  2  0
 27 22  1  0
 27 25  2  0
 28 18  2  0
 28 27  1  0
M  CHG  2   1  -1  16  -1
M  END
>  <pic50>  (4) 
7.047933578491211

>  <pki>  (4) 
6.840261459350586

>  <pkd>  (4) 
6.547382831573486

>  <pec50>  (4) 
6.430517673492432

$$$$
ptp1b_protein_4
     RDKit          3D

 25 28  0  0  0  0  0  0  0  0999 V2000
   42.8582   10.7828   17.1338 C   0  0  0  0  0  0  0  0  0  0  0  0
   43.2705   12.1130   16.9369 C   0  0  0  0  0  0  0  0  0  0  0  0
   36.5335    9.6336   17.0447 O   0  0  0  0  0  0  0  0  0  0  0  0
   39.9354    8.4833   16.2634 C   0  0  0  0  0  0  0  0  0  0  0  0
   41.2526   10.9579   15.3074 C   0  0  0  0  0  0  0  0  0  0  0  0
   41.3728   16.9073   11.8834 N   0  0  0  0  0  0  0  0  0  0  0  0
   42.1299   14.6466   14.7037 C   0  0  0  0  0  0  0  0  0  0  0  0
   43.0563   14.9935   11.9067 O   0  0  0  0  0  0  0  0  0  0  0  0
   38.3344    7.2909   14.8935 C   0  0  0  0  0  0  0  0  0  0  0  0
   39.6643    7.5729   15.2301 C   0  0  0  0  0  0  0  0  0  0  0  0
   42.1553   16.0946   14.2151 C   0  0  0  0  0  0  0  0  0  0  0  0
   43.8334   17.2633   12.4871 O   0  0  0  0  0  0  0  0  0  0  0  0
   39.3723   17.7797   12.5447 O   0  0  0  0  0  0  0  0  0  0  0  0
   40.4587   17.2046   12.7701 C   0  0  0  0  0  0  0  0  0  0  0  0
   40.7804   16.7683   14.1982 C   0  0  0  0  0  0  0  0  0  0  0  0
   38.8881    9.1929   16.8811 C   0  0  0  0  0  0  0  0  0  0  0  0
   37.2847    7.9772   15.5104 C   0  0  0  0  0  0  0  0  0  0  0  0
   42.9065   14.1998   15.6743 N   0  0  0  0  0  0  0  0  0  0  0  0
   37.5633    8.9377   16.4938 C   0  0  0  0  0  0  0  0  0  0  0  0
   42.7562   16.2954   12.4595 S   0  0  0  0  0  0  0  0  0  0  0  0
   41.8359   10.2149   16.3561 C   0  0  0  0  0  0  0  0  0  0  0  0
   41.6596   12.2842   15.1295 C   0  0  0  0  0  0  0  0  0  0  0  0
   41.0624   13.4738   13.9895 S   0  0  0  0  0  0  0  0  0  0  0  0
   41.3898    8.7833   16.6357 C   0  0  0  0  0  0  0  0  0  0  0  0
   42.6382   12.8814   15.9356 C   0  0  0  0  0  0  0  0  0  0  0  0
  2  1  2  0
 10  4  1  0
 10  9  2  0
 11  7  1  0
 14  6  1  0
 14 13  2  0
 15 11  1  0
 15 14  1  0
 16  4  2  0
 17  9  1  0
 18  7  2  0
 19  3  1  0
 19 16  1  0
 19 17  2  0
 20  6  1  0
 20  8  2  0
 20 11  1  0
 20 12  2  0
 21  1  1  0
 21  5  2  0
 22  5  1  0
 23  7  1  0
 23 22  1  0
 24  4  1  0
 24 21  1  0
 25  2  1  0
 25 18  1  0
 25 22  2  0
M  CHG  1   6  -1
M  END
>  <pic50>  (5) 
6.377261161804199

>  <pki>  (5) 
5.677567958831787

>  <pkd>  (5) 
4.985289573669434

>  <pec50>  (5) 
5.639631271362305

$$$$
